Circuit: *** SPICE deck for cell FlipFlop{sch} from library 1220769-1221769-1220137-cmos

WARNING: Node Q is floating.

WARNING: Less than two connections to node Q.  This node is used by CQ.
Direct Newton iteration for .op point succeeded.


Measurement "td" FAIL'ed

Measurement "trise" FAIL'ed

Measurement "tfall" FAIL'ed
idd_avg: AVG(i(vdd))=-0.000169762 FROM 0 TO 1e-007
vdd_avg: AVG(v(vdd))=0.85 FROM 0 TO 1e-007
energy: INTEG(i(vdd)*v(vdd))=-1.44298e-011 FROM 0 TO 1e-007


Date: Tue Jun 17 10:57:49 2025
Total elapsed time: 0.372 seconds.

tnom = 27
temp = 27
method = modified trap
totiter = 2659
traniter = 2648
tranpoints = 1276
accept = 1218
rejected = 58
matrix size = 117
fillins = 0
solver = Normal
Thread vector: 46.3/25.9[2] 6.4/10.2[1] 1.7/3.5[1] 0.7/40.4[1]  2592/500
Matrix Compiler1: 9.92 KB object code size  4.4/2.6/[0.7]
Matrix Compiler2: 11.83 KB object code size  1.4/2.2/[0.7]

